<?xml version="1.0" encoding="UTF-8"?>

<!-- generated on 11/07/2022 01:32:31 by Eclipse SUMO netedit Version 1.9.0
<configuration xmlns:xsi="http://www.w3.org/2001/XMLSchema-instance" xsi:noNamespaceSchemaLocation="http://sumo.dlr.de/xsd/netconvertConfiguration.xsd">

    <input>
        <sumo-net-file value="C:\Users\xyzab\Downloads\main.net.xml"/>
    </input>

    <output>
        <output-file value="C:\Users\xyzab\Downloads\main.net.xml"/>
    </output>

    <processing>
        <geometry.min-radius.fix.railways value="false"/>
        <geometry.max-grade.fix value="false"/>
        <offset.disable-normalization value="true"/>
        <lefthand value="false"/>
    </processing>

    <junctions>
        <no-turnarounds value="true"/>
        <junctions.corner-detail value="5"/>
        <junctions.limit-turn-speed value="5.5"/>
        <rectangular-lane-cut value="false"/>
    </junctions>

    <pedestrian>
        <walkingareas value="false"/>
    </pedestrian>

    <report>
        <aggregate-warnings value="5"/>
    </report>

</configuration>
-->

<net version="1.9" junctionCornerDetail="5" limitTurnSpeed="5.50" xmlns:xsi="http://www.w3.org/2001/XMLSchema-instance" xsi:noNamespaceSchemaLocation="http://sumo.dlr.de/xsd/net_file.xsd">

    <location netOffset="-601083.22,-1141442.19" convBoundary="1046.59,638.45,2900.38,2279.29" origBoundary="123.923251,10.324463,123.961750,10.353503" projParameter="+proj=utm +zone=51 +ellps=WGS84 +datum=WGS84 +units=m +no_defs"/>

    <type id="highway.bridleway" priority="1" numLanes="3" speed="2.78" allow="pedestrian" oneway="1" width="2.00">
        <laneType index="0"/>
        <laneType index="1" speed="13.89"/>
        <laneType index="2" speed="13.89"/>
    </type>
    <type id="highway.bus_guideway" priority="1" numLanes="1" speed="27.78" allow="bus" oneway="1"/>
    <type id="highway.cycleway" priority="1" numLanes="1" speed="8.33" allow="bicycle" oneway="1" width="1.00"/>
    <type id="highway.footway" priority="1" numLanes="1" speed="2.78" allow="pedestrian" oneway="1" width="2.00"/>
    <type id="highway.ford" priority="1" numLanes="1" speed="2.78" allow="army" oneway="1"/>
    <type id="highway.living_street" priority="1" numLanes="1" speed="2.78" disallow="tram rail_urban rail rail_electric rail_fast ship" oneway="1"/>
    <type id="highway.motorway" priority="1" numLanes="2" speed="39.44" allow="private emergency authority army vip passenger hov taxi bus coach delivery truck trailer motorcycle evehicle custom1 custom2" oneway="1"/>
    <type id="highway.motorway_link" priority="9" numLanes="1" speed="22.22" allow="private emergency authority army vip passenger hov taxi bus coach delivery truck trailer motorcycle evehicle custom1 custom2" oneway="1"/>
    <type id="highway.path" priority="1" numLanes="1" speed="2.78" allow="pedestrian bicycle" oneway="1" width="2.00"/>
    <type id="highway.pedestrian" priority="1" numLanes="1" speed="2.78" allow="pedestrian" oneway="1" width="2.00"/>
    <type id="highway.primary" priority="1" numLanes="3" speed="27.78" disallow="tram rail_urban rail rail_electric rail_fast ship" oneway="1">
        <laneType index="0"/>
        <laneType index="1"/>
        <laneType index="2" speed="13.89"/>
    </type>
    <type id="highway.primary_link" priority="1" numLanes="1" speed="22.22" disallow="tram rail_urban rail rail_electric rail_fast ship" oneway="1"/>
    <type id="highway.raceway" priority="1" numLanes="2" speed="83.33" allow="vip" oneway="1"/>
    <type id="highway.residential" priority="1" numLanes="1" speed="13.89" disallow="tram rail_urban rail rail_electric rail_fast ship" oneway="1"/>
    <type id="highway.secondary" priority="1" numLanes="1" speed="27.78" disallow="tram rail_urban rail rail_electric rail_fast ship" oneway="1"/>
    <type id="highway.secondary_link" priority="1" numLanes="1" speed="22.22" disallow="tram rail_urban rail rail_electric rail_fast ship" oneway="1"/>
    <type id="highway.service" priority="1" numLanes="1" speed="5.56" allow="pedestrian delivery bicycle" oneway="1"/>
    <type id="highway.stairs" priority="1" numLanes="1" speed="1.39" allow="pedestrian" oneway="1" width="2.00"/>
    <type id="highway.step" priority="1" numLanes="1" speed="1.39" allow="pedestrian" oneway="1" width="2.00"/>
    <type id="highway.steps" priority="1" numLanes="1" speed="1.39" allow="pedestrian" oneway="1" width="2.00"/>
    <type id="highway.tertiary" priority="1" numLanes="1" speed="22.22" disallow="tram rail_urban rail rail_electric rail_fast ship" oneway="1"/>
    <type id="highway.tertiary_link" priority="1" numLanes="1" speed="22.22" disallow="tram rail_urban rail rail_electric rail_fast ship" oneway="1"/>
    <type id="highway.track" priority="1" numLanes="1" speed="5.56" allow="pedestrian motorcycle moped bicycle" oneway="1"/>
    <type id="highway.trunk" priority="1" numLanes="2" speed="27.78" disallow="pedestrian bicycle tram rail_urban rail rail_electric rail_fast ship" oneway="1"/>
    <type id="highway.trunk_link" priority="1" numLanes="1" speed="22.22" disallow="pedestrian bicycle tram rail_urban rail rail_electric rail_fast ship" oneway="1"/>
    <type id="highway.unclassified" priority="1" numLanes="1" speed="13.89" disallow="tram rail_urban rail rail_electric rail_fast ship" oneway="1"/>
    <type id="highway.unsurfaced" priority="1" numLanes="1" speed="8.33" disallow="tram rail_urban rail rail_electric rail_fast ship" oneway="1"/>
    <type id="railway.highspeed" priority="1" numLanes="1" speed="69.44" allow="rail_fast" oneway="1"/>
    <type id="railway.light_rail" priority="1" numLanes="1" speed="27.78" allow="rail_urban" oneway="1"/>
    <type id="railway.preserved" priority="1" numLanes="1" speed="27.78" allow="rail" oneway="1"/>
    <type id="railway.rail" priority="1" numLanes="1" speed="44.44" allow="rail" oneway="1"/>
    <type id="railway.subway" priority="1" numLanes="1" speed="27.78" allow="rail_urban" oneway="1"/>
    <type id="railway.tram" priority="1" numLanes="1" speed="13.89" allow="tram" oneway="1"/>

    <edge id=":1090011368_0" function="internal">
        <lane id=":1090011368_0_0" index="0" disallow="tram rail_urban rail rail_electric rail_fast ship" speed="16.67" length="0.35" shape="2484.11,1675.41 2483.84,1675.11"/>
        <lane id=":1090011368_0_1" index="1" disallow="tram rail_urban rail rail_electric rail_fast ship" speed="16.67" length="0.35" shape="2486.42,1673.20 2486.22,1672.98"/>
    </edge>
    <edge id=":1090011368_2" function="internal">
        <lane id=":1090011368_2_0" index="0" disallow="tram rail_urban rail rail_electric rail_fast ship" speed="16.67" length="0.13" shape="2490.98,1668.71 2491.04,1668.76"/>
        <lane id=":1090011368_2_1" index="1" disallow="tram rail_urban rail rail_electric rail_fast ship" speed="16.67" length="0.13" shape="2488.60,1670.84 2488.73,1670.98"/>
    </edge>
    <edge id=":1119624599_0" function="internal">
        <lane id=":1119624599_0_0" index="0" disallow="tram rail_urban rail rail_electric rail_fast ship" speed="22.22" length="0.10" shape="2667.82,1973.61 2667.82,1973.61"/>
    </edge>
    <edge id=":2190736469_0" function="internal">
        <lane id=":2190736469_0_0" index="0" disallow="tram rail_urban rail rail_electric rail_fast ship" speed="16.67" length="0.23" shape="2190.10,1455.68 2189.94,1455.56"/>
        <lane id=":2190736469_0_1" index="1" disallow="tram rail_urban rail rail_electric rail_fast ship" speed="16.67" length="0.23" shape="2192.01,1453.11 2191.80,1452.96"/>
    </edge>
    <edge id=":2190736469_2" function="internal">
        <lane id=":2190736469_2_0" index="0" disallow="tram rail_urban rail rail_electric rail_fast ship" speed="16.67" length="0.34" shape="2195.53,1447.75 2195.83,1447.97"/>
        <lane id=":2190736469_2_1" index="1" disallow="tram rail_urban rail rail_electric rail_fast ship" speed="16.67" length="0.34" shape="2193.67,1450.36 2193.92,1450.54"/>
    </edge>
    <edge id=":2190736535_0" function="internal">
        <lane id=":2190736535_0_0" index="0" disallow="tram rail_urban rail rail_electric rail_fast ship" speed="16.67" length="1.43" shape="2363.56,1580.42 2363.13,1580.17 2362.84,1579.99 2362.57,1579.79 2362.18,1579.48"/>
        <lane id=":2190736535_0_1" index="1" disallow="tram rail_urban rail rail_electric rail_fast ship" speed="16.67" length="1.43" shape="2365.16,1577.64 2364.85,1577.47 2364.64,1577.34 2364.45,1577.19 2364.17,1576.98"/>
    </edge>
    <edge id=":2190736535_2" function="internal">
        <lane id=":2190736535_2_0" index="0" disallow="tram rail_urban rail rail_electric rail_fast ship" speed="16.67" length="0.48" shape="2368.15,1571.96 2368.21,1572.01 2368.25,1572.04 2368.29,1572.06 2368.35,1572.10"/>
        <lane id=":2190736535_2_1" index="1" disallow="tram rail_urban rail rail_electric rail_fast ship" speed="16.67" length="0.48" shape="2366.16,1574.47 2366.33,1574.60 2366.45,1574.69 2366.57,1574.77 2366.75,1574.87"/>
    </edge>
    <edge id=":2190736536_0" function="internal">
        <lane id=":2190736536_0_0" index="0" disallow="tram rail_urban rail rail_electric rail_fast ship" speed="16.67" length="0.18" shape="2346.97,1567.40 2346.90,1567.35"/>
        <lane id=":2190736536_0_1" index="1" disallow="tram rail_urban rail rail_electric rail_fast ship" speed="16.67" length="0.18" shape="2348.96,1564.89 2348.75,1564.73"/>
    </edge>
    <edge id=":2190736536_2" function="internal">
        <lane id=":2190736536_2_0" index="0" disallow="tram rail_urban rail rail_electric rail_fast ship" speed="16.67" length="0.54" shape="2352.45,1559.51 2352.95,1559.88"/>
        <lane id=":2190736536_2_1" index="1" disallow="tram rail_urban rail rail_electric rail_fast ship" speed="16.67" length="0.54" shape="2350.60,1562.12 2350.96,1562.39"/>
    </edge>
    <edge id=":318421252_0" function="internal">
        <lane id=":318421252_0_0" index="0" disallow="tram rail_urban rail rail_electric rail_fast ship" speed="16.67" length="2.89" shape="2423.11,1619.97 2420.92,1618.16"/>
        <lane id=":318421252_0_1" index="1" disallow="tram rail_urban rail rail_electric rail_fast ship" speed="16.67" length="2.89" shape="2425.05,1617.43 2422.77,1615.55"/>
    </edge>
    <edge id=":318421252_2" function="internal">
        <lane id=":318421252_2_0" index="0" disallow="tram rail_urban rail rail_electric rail_fast ship" speed="16.67" length="3.11" shape="2426.47,1610.33 2429.00,1612.24"/>
        <lane id=":318421252_2_1" index="1" disallow="tram rail_urban rail rail_electric rail_fast ship" speed="16.67" length="3.11" shape="2424.62,1612.94 2427.06,1614.78"/>
    </edge>
    <edge id=":322734642_0" function="internal">
        <lane id=":322734642_0_0" index="0" disallow="tram rail_urban rail rail_electric rail_fast ship" speed="16.67" length="0.25" shape="2659.67,2093.13 2659.64,2092.84"/>
        <lane id=":322734642_0_1" index="1" disallow="tram rail_urban rail rail_electric rail_fast ship" speed="16.67" length="0.25" shape="2662.84,2092.75 2662.82,2092.56"/>
    </edge>
    <edge id=":322734685_0" function="internal">
        <lane id=":322734685_0_0" index="0" disallow="tram rail_urban rail rail_electric rail_fast ship" speed="16.67" length="8.59" shape="2663.08,2142.95 2662.60,2134.36"/>
        <lane id=":322734685_0_1" index="1" disallow="tram rail_urban rail rail_electric rail_fast ship" speed="16.67" length="8.59" shape="2666.28,2142.77 2665.80,2134.21"/>
    </edge>
    <edge id=":322734685_2" function="internal">
        <lane id=":322734685_2_0" index="0" disallow="tram rail_urban rail rail_electric rail_fast ship" speed="19.45" length="8.50" shape="2676.50,2135.19 2675.56,2137.45 2674.17,2138.78 2672.96,2140.12 2672.53,2142.41"/>
    </edge>
    <edge id=":322734685_3" function="internal">
        <lane id=":322734685_3_0" index="0" disallow="tram rail_urban rail rail_electric rail_fast ship" speed="16.67" length="8.53" shape="2672.70,2133.89 2672.53,2142.41"/>
        <lane id=":322734685_3_1" index="1" disallow="tram rail_urban rail rail_electric rail_fast ship" speed="16.67" length="8.53" shape="2669.50,2134.04 2669.34,2142.59"/>
    </edge>
    <edge id=":391934769_0" function="internal">
        <lane id=":391934769_0_0" index="0" disallow="tram rail_urban rail rail_electric rail_fast ship" speed="16.67" length="12.22" shape="2505.95,1703.50 2504.86,1700.21 2504.23,1697.86 2503.24,1695.74 2501.11,1693.12"/>
        <lane id=":391934769_0_1" index="1" disallow="tram rail_urban rail rail_electric rail_fast ship" speed="16.67" length="12.22" shape="2508.92,1702.32 2507.70,1698.70 2506.95,1696.12 2505.81,1693.79 2503.42,1690.91"/>
    </edge>
    <edge id=":391934769_2" function="internal">
        <lane id=":391934769_2_0" index="0" disallow="tram rail_urban rail rail_electric rail_fast ship" speed="16.67" length="13.43" shape="2508.04,1686.48 2510.34,1689.64 2511.25,1692.30 2512.14,1694.96 2514.40,1698.17"/>
        <lane id=":391934769_2_1" index="1" disallow="tram rail_urban rail rail_electric rail_fast ship" speed="16.67" length="13.43" shape="2505.73,1688.69 2508.02,1691.85 2508.92,1694.49 2509.81,1697.15 2512.05,1700.35"/>
    </edge>
    <edge id=":391961215_0" function="internal">
        <lane id=":391961215_0_0" index="0" disallow="tram rail_urban rail rail_electric rail_fast ship" speed="16.67" length="15.24" shape="2407.79,1608.85 2395.33,1599.92"/>
        <lane id=":391961215_0_1" index="1" disallow="tram rail_urban rail rail_electric rail_fast ship" speed="16.67" length="15.24" shape="2409.64,1606.24 2397.32,1597.41"/>
    </edge>
    <edge id=":391961215_2" function="internal">
        <lane id=":391961215_2_0" index="0" disallow="tram rail_urban rail rail_electric rail_fast ship" speed="11.88" length="13.03" shape="2401.30,1592.40 2403.28,1593.42 2406.05,1594.00 2409.63,1594.12 2414.01,1593.80"/>
        <lane id=":391961215_2_1" index="1" disallow="tram rail_urban rail rail_electric rail_fast ship" speed="12.39" length="14.20" shape="2401.30,1592.40 2404.63,1594.68 2407.92,1596.20 2411.17,1596.97 2414.38,1596.98"/>
    </edge>
    <edge id=":391961215_4" function="internal">
        <lane id=":391961215_4_0" index="0" disallow="tram rail_urban rail rail_electric rail_fast ship" speed="16.67" length="14.89" shape="2401.30,1592.40 2413.34,1601.02"/>
        <lane id=":391961215_4_1" index="1" disallow="tram rail_urban rail rail_electric rail_fast ship" speed="16.67" length="14.89" shape="2399.31,1594.91 2411.49,1603.63"/>
    </edge>
    <edge id=":391963729_0" function="internal">
        <lane id=":391963729_0_0" index="0" disallow="tram rail_urban rail rail_electric rail_fast ship" speed="12.23" length="9.27" shape="2687.80,1855.78 2690.42,1856.69 2692.29,1857.42 2694.13,1857.64 2696.69,1857.03"/>
    </edge>
    <edge id=":391963729_1" function="internal">
        <lane id=":391963729_1_0" index="0" disallow="tram rail_urban rail rail_electric rail_fast ship" speed="16.67" length="9.31" shape="2687.85,1859.69 2696.69,1857.03"/>
        <lane id=":391963729_1_1" index="1" disallow="tram rail_urban rail rail_electric rail_fast ship" speed="16.67" length="9.31" shape="2688.78,1862.75 2697.78,1860.04"/>
    </edge>
    <edge id=":392551411_0" function="internal">
        <lane id=":392551411_0_0" index="0" disallow="tram rail_urban rail rail_electric rail_fast ship" speed="16.67" length="0.12" shape="1968.14,1295.49 1968.12,1295.49"/>
        <lane id=":392551411_0_1" index="1" disallow="tram rail_urban rail rail_electric rail_fast ship" speed="16.67" length="0.12" shape="1970.01,1292.90 1969.82,1292.77"/>
    </edge>
    <edge id=":392551411_2" function="internal">
        <lane id=":392551411_2_0" index="0" disallow="tram rail_urban rail rail_electric rail_fast ship" speed="16.67" length="0.54" shape="1973.26,1287.28 1973.75,1287.70"/>
        <lane id=":392551411_2_1" index="1" disallow="tram rail_urban rail rail_electric rail_fast ship" speed="16.67" length="0.54" shape="1971.54,1290.02 1971.88,1290.30"/>
    </edge>
    <edge id=":392551440_0" function="internal">
        <lane id=":392551440_0_0" index="0" disallow="tram rail_urban rail rail_electric rail_fast ship" speed="16.67" length="8.19" shape="1664.80,1082.07 1662.68,1080.91 1661.04,1080.45 1659.41,1079.97 1657.31,1078.78"/>
        <lane id=":392551440_0_1" index="1" disallow="tram rail_urban rail rail_electric rail_fast ship" speed="16.67" length="8.19" shape="1666.62,1079.44 1664.51,1078.29 1662.88,1077.82 1661.26,1077.35 1659.17,1076.17"/>
        <lane id=":392551440_0_2" index="2" disallow="tram rail_urban rail rail_electric rail_fast ship" speed="16.67" length="8.19" shape="1666.62,1079.44 1664.80,1077.88 1663.81,1076.52 1662.82,1075.15 1661.03,1073.57"/>
    </edge>
    <edge id=":395336239_0" function="internal">
        <lane id=":395336239_0_0" index="0" disallow="tram rail_urban rail rail_electric rail_fast ship" speed="16.67" length="0.28" shape="1543.96,998.00 1543.67,997.78"/>
        <lane id=":395336239_0_1" index="1" disallow="tram rail_urban rail rail_electric rail_fast ship" speed="16.67" length="0.28" shape="1545.81,995.39 1545.59,995.23"/>
        <lane id=":395336239_0_2" index="2" disallow="tram rail_urban rail rail_electric rail_fast ship" speed="16.67" length="0.28" shape="1547.67,992.78 1547.51,992.67"/>
    </edge>
    <edge id=":395336312_0" function="internal">
        <lane id=":395336312_0_0" index="0" disallow="tram rail_urban rail rail_electric rail_fast ship" speed="16.67" length="0.10" shape="2471.94,1661.85 2471.94,1661.85"/>
        <lane id=":395336312_0_1" index="1" disallow="tram rail_urban rail rail_electric rail_fast ship" speed="16.67" length="0.10" shape="2474.33,1659.72 2474.21,1659.60"/>
    </edge>
    <edge id=":395336312_2" function="internal">
        <lane id=":395336312_2_0" index="0" disallow="tram rail_urban rail rail_electric rail_fast ship" speed="16.67" length="0.41" shape="2478.77,1655.08 2479.09,1655.44"/>
        <lane id=":395336312_2_1" index="1" disallow="tram rail_urban rail rail_electric rail_fast ship" speed="16.67" length="0.41" shape="2476.49,1657.34 2476.71,1657.58"/>
    </edge>
    <edge id=":395336314_0" function="internal">
        <lane id=":395336314_0_0" index="0" disallow="tram rail_urban rail rail_electric rail_fast ship" speed="6.11" length="6.76" shape="2500.94,1583.81 2502.75,1583.85 2504.21,1584.43 2505.32,1585.54 2506.08,1587.18"/>
        <lane id=":395336314_0_1" index="1" disallow="tram rail_urban rail rail_electric rail_fast ship" speed="3.92" length="2.25" shape="2501.30,1586.99 2501.91,1587.01 2502.39,1587.20 2502.76,1587.57 2503.02,1588.12"/>
    </edge>
    <edge id=":395336321_0" function="internal">
        <lane id=":395336321_0_0" index="0" disallow="tram rail_urban rail rail_electric rail_fast ship" speed="9.72" length="7.29" shape="1466.33,718.47 1468.49,718.75 1470.05,718.94 1471.49,718.71 1473.30,717.70"/>
    </edge>
    <edge id=":395336321_1" function="internal">
        <lane id=":395336321_1_0" index="0" disallow="tram rail_urban rail rail_electric rail_fast ship" speed="5.56" length="7.11" shape="1467.68,722.38 1469.27,720.90 1470.38,719.90 1471.54,718.97 1473.30,717.70"/>
        <lane id=":395336321_1_1" index="1" disallow="tram rail_urban rail rail_electric rail_fast ship" speed="5.56" length="7.11" shape="1469.84,724.73 1471.34,723.34 1472.38,722.40 1473.47,721.52 1475.14,720.33"/>
    </edge>
    <edge id=":4106989193_0" function="internal">
        <lane id=":4106989193_0_0" index="0" disallow="tram rail_urban rail rail_electric rail_fast ship" speed="22.22" length="0.10" shape="2600.04,1797.80 2600.04,1797.80"/>
    </edge>
    <edge id=":435185383_0" function="internal">
        <lane id=":435185383_0_0" index="0" disallow="tram rail_urban rail rail_electric rail_fast ship" speed="22.23" length="2.57" shape="1503.69,946.04 1504.09,946.48 1504.36,946.79 1504.64,947.08 1505.11,947.44"/>
        <lane id=":435185383_0_1" index="1" disallow="tram rail_urban rail rail_electric rail_fast ship" speed="22.23" length="2.57" shape="1501.41,948.29 1501.93,948.85 1502.28,949.24 1502.66,949.60 1503.26,950.06"/>
        <lane id=":435185383_0_2" index="2" disallow="tram rail_urban rail rail_electric rail_fast ship" speed="15.28" length="2.57" shape="1499.13,950.53 1499.77,951.21 1500.20,951.68 1500.67,952.11 1501.42,952.67"/>
    </edge>
    <edge id=":435186088_0" function="internal">
        <lane id=":435186088_0_0" index="0" disallow="tram rail_urban rail rail_electric rail_fast ship" speed="16.67" length="0.48" shape="2389.92,1595.62 2389.86,1595.57 2389.82,1595.54 2389.78,1595.52 2389.72,1595.48"/>
        <lane id=":435186088_0_1" index="1" disallow="tram rail_urban rail rail_electric rail_fast ship" speed="16.67" length="0.48" shape="2391.91,1593.11 2391.74,1592.98 2391.62,1592.89 2391.50,1592.82 2391.32,1592.71"/>
    </edge>
    <edge id=":435186088_2" function="internal">
        <lane id=":435186088_2_0" index="0" disallow="tram rail_urban rail rail_electric rail_fast ship" speed="16.67" length="1.43" shape="2394.51,1587.16 2394.94,1587.41 2395.23,1587.59 2395.50,1587.79 2395.89,1588.10"/>
        <lane id=":435186088_2_1" index="1" disallow="tram rail_urban rail rail_electric rail_fast ship" speed="16.67" length="1.43" shape="2392.91,1589.94 2393.22,1590.11 2393.43,1590.24 2393.62,1590.39 2393.90,1590.60"/>
    </edge>
    <edge id=":4543929070_0" function="internal">
        <lane id=":4543929070_0_0" index="0" disallow="tram rail_urban rail rail_electric rail_fast ship" speed="16.67" length="0.28" shape="2853.04,1799.24 2853.33,1799.13"/>
        <lane id=":4543929070_0_1" index="1" disallow="tram rail_urban rail rail_electric rail_fast ship" speed="16.67" length="0.28" shape="2854.24,1802.20 2854.47,1802.12"/>
    </edge>
    <edge id=":5831070621_0" function="internal">
        <lane id=":5831070621_0_0" index="0" disallow="tram rail_urban rail rail_electric rail_fast ship" speed="22.22" length="8.19" shape="2574.92,1760.19 2576.41,1762.07 2577.73,1763.13 2579.04,1764.20 2580.51,1766.10"/>
    </edge>
    <edge id=":5908434984_0" function="internal">
        <lane id=":5908434984_0_0" index="0" disallow="tram rail_urban rail rail_electric rail_fast ship" speed="16.67" length="7.87" shape="1922.13,1115.50 1924.15,1114.55 1925.35,1113.53 1926.52,1112.45 1928.48,1111.33"/>
        <lane id=":5908434984_0_1" index="1" disallow="tram rail_urban rail rail_electric rail_fast ship" speed="16.67" length="7.87" shape="1923.16,1118.53 1925.25,1117.55 1926.50,1116.51 1927.73,1115.42 1929.76,1114.26"/>
        <lane id=":5908434984_0_2" index="2" disallow="tram rail_urban rail rail_electric rail_fast ship" speed="16.67" length="7.87" shape="1923.16,1118.53 1925.47,1118.01 1927.14,1117.98 1928.79,1117.90 1931.04,1117.19"/>
    </edge>
    <edge id=":5908435086_0" function="internal">
        <lane id=":5908435086_0_0" index="0" disallow="tram rail_urban rail rail_electric rail_fast ship" speed="11.32" length="11.27" shape="1932.58,1128.66 1929.97,1130.37 1928.83,1132.30 1928.23,1134.74 1927.26,1137.99"/>
        <lane id=":5908435086_0_1" index="1" disallow="tram rail_urban rail rail_electric rail_fast ship" speed="11.73" length="12.14" shape="1932.58,1128.66 1929.35,1130.21 1927.24,1131.63 1925.73,1133.61 1924.28,1136.82"/>
    </edge>
    <edge id=":5908435086_2" function="internal">
        <lane id=":5908435086_2_0" index="0" disallow="tram rail_urban rail rail_electric rail_fast ship" speed="16.67" length="12.87" shape="1932.58,1128.66 1921.09,1133.90"/>
        <lane id=":5908435086_2_1" index="1" disallow="tram rail_urban rail rail_electric rail_fast ship" speed="16.67" length="12.87" shape="1931.23,1125.76 1919.52,1131.08"/>
        <lane id=":5908435086_2_2" index="2" disallow="tram rail_urban rail rail_electric rail_fast ship" speed="16.67" length="12.87" shape="1929.88,1122.86 1917.95,1128.25"/>
    </edge>
    <edge id=":5908477103_0" function="internal">
        <lane id=":5908477103_0_0" index="0" disallow="tram rail_urban rail rail_electric rail_fast ship" speed="16.67" length="0.10" shape="1988.45,1310.11 1988.45,1310.11"/>
        <lane id=":5908477103_0_1" index="1" disallow="tram rail_urban rail rail_electric rail_fast ship" speed="16.67" length="0.10" shape="1990.32,1307.51 1990.32,1307.51"/>
    </edge>
    <edge id=":5908477103_2" function="internal">
        <lane id=":5908477103_2_0" index="0" disallow="tram rail_urban rail rail_electric rail_fast ship" speed="16.67" length="0.10" shape="1994.05,1302.31 1994.05,1302.31"/>
        <lane id=":5908477103_2_1" index="1" disallow="tram rail_urban rail rail_electric rail_fast ship" speed="16.67" length="0.10" shape="1992.18,1304.91 1992.18,1304.91"/>
    </edge>
    <edge id=":5908477107_0" function="internal">
        <lane id=":5908477107_0_0" index="0" disallow="tram rail_urban rail rail_electric rail_fast ship" speed="9.93" length="9.74" shape="1875.69,1230.61 1874.36,1230.05 1872.32,1229.84 1869.57,1230.00 1866.12,1230.52"/>
    </edge>
    <edge id=":5908477107_1" function="internal">
        <lane id=":5908477107_1_0" index="0" disallow="tram rail_urban rail rail_electric rail_fast ship" speed="15.28" length="8.26" shape="1875.69,1230.61 1873.35,1229.39 1871.39,1228.94 1869.71,1228.26 1868.20,1226.33"/>
        <lane id=":5908477107_1_1" index="1" disallow="tram rail_urban rail rail_electric rail_fast ship" speed="14.94" length="8.26" shape="1877.63,1228.06 1875.60,1227.09 1873.87,1226.87 1872.37,1226.45 1871.05,1224.88"/>
    </edge>
    <edge id=":5908489917_0" function="internal">
        <lane id=":5908489917_0_0" index="0" disallow="tram rail_urban rail rail_electric rail_fast ship" speed="12.09" length="11.99" shape="1473.88,945.29 1470.85,943.71 1468.29,943.61 1465.66,944.23 1462.41,944.82"/>
    </edge>
    <edge id=":5908489917_1" function="internal">
        <lane id=":5908489917_1_0" index="0" disallow="tram rail_urban rail rail_electric rail_fast ship" speed="22.23" length="10.08" shape="1473.88,945.29 1471.01,943.86 1468.62,943.51 1466.43,942.96 1464.18,940.92"/>
        <lane id=":5908489917_1_1" index="1" disallow="tram rail_urban rail rail_electric rail_fast ship" speed="22.23" length="10.08" shape="1475.80,942.74 1473.15,941.47 1470.90,941.25 1468.84,940.85 1466.75,939.02"/>
        <lane id=":5908489917_1_2" index="2" disallow="tram rail_urban rail rail_electric rail_fast ship" speed="15.28" length="10.08" shape="1477.73,940.18 1475.28,939.07 1473.18,938.99 1471.25,938.73 1469.32,937.12"/>
    </edge>
    <edge id=":6275935393_0" function="internal">
        <lane id=":6275935393_0_0" index="0" disallow="tram rail_urban rail rail_electric rail_fast ship" speed="7.43" length="8.99" shape="1880.64,1212.69 1880.30,1215.49 1880.55,1217.77 1881.38,1219.56 1882.79,1220.83"/>
        <lane id=":6275935393_0_1" index="1" disallow="tram rail_urban rail rail_electric rail_fast ship" speed="8.81" length="12.95" shape="1877.50,1212.05 1877.09,1215.89 1877.56,1219.09 1878.91,1221.65 1881.15,1223.58"/>
    </edge>
    <edge id=":6275935393_2" function="internal">
        <lane id=":6275935393_2_0" index="0" disallow="tram rail_urban rail rail_electric rail_fast ship" speed="16.67" length="12.47" shape="1872.11,1214.41 1882.79,1220.83"/>
        <lane id=":6275935393_2_1" index="1" disallow="tram rail_urban rail rail_electric rail_fast ship" speed="16.67" length="12.47" shape="1870.46,1217.15 1881.15,1223.58"/>
    </edge>
    <edge id=":6275935405_0" function="internal">
        <lane id=":6275935405_0_0" index="0" disallow="tram rail_urban rail rail_electric rail_fast ship" speed="16.67" length="0.33" shape="2079.59,1376.51 2079.32,1376.31"/>
        <lane id=":6275935405_0_1" index="1" disallow="tram rail_urban rail rail_electric rail_fast ship" speed="16.67" length="0.33" shape="2081.46,1373.91 2081.21,1373.72"/>
    </edge>
    <edge id=":6275935405_2" function="internal">
        <lane id=":6275935405_2_0" index="0" disallow="tram rail_urban rail rail_electric rail_fast ship" speed="16.67" length="0.26" shape="2084.98,1368.56 2085.19,1368.70"/>
        <lane id=":6275935405_2_1" index="1" disallow="tram rail_urban rail rail_electric rail_fast ship" speed="16.67" length="0.26" shape="2083.10,1371.14 2083.32,1371.31"/>
    </edge>
    <edge id=":6276043001_0" function="internal">
        <lane id=":6276043001_0_0" index="0" disallow="tram rail_urban rail rail_electric rail_fast ship" speed="22.22" length="0.25" shape="2516.83,1622.43 2516.89,1622.61"/>
        <lane id=":6276043001_0_1" index="1" disallow="tram rail_urban rail rail_electric rail_fast ship" speed="22.22" length="0.25" shape="2513.77,1623.37 2513.87,1623.67"/>
    </edge>
    <edge id=":6276095533_0" function="internal">
        <lane id=":6276095533_0_0" index="0" disallow="tram rail_urban rail rail_electric rail_fast ship" speed="16.67" length="0.30" shape="2585.36,1817.58 2585.18,1817.32"/>
        <lane id=":6276095533_0_1" index="1" disallow="tram rail_urban rail rail_electric rail_fast ship" speed="16.67" length="0.30" shape="2587.95,1815.70 2587.79,1815.47"/>
    </edge>
    <edge id=":6276095564_0" function="internal">
        <lane id=":6276095564_0_0" index="0" disallow="tram rail_urban rail rail_electric rail_fast ship" speed="16.67" length="0.27" shape="2009.84,1325.49 2009.63,1325.34"/>
        <lane id=":6276095564_0_1" index="1" disallow="tram rail_urban rail rail_electric rail_fast ship" speed="16.67" length="0.27" shape="2011.73,1322.91 2011.50,1322.74"/>
    </edge>
    <edge id=":6276095564_2" function="internal">
        <lane id=":6276095564_2_0" index="0" disallow="tram rail_urban rail rail_electric rail_fast ship" speed="16.67" length="0.32" shape="2015.23,1317.55 2015.50,1317.74"/>
        <lane id=":6276095564_2_1" index="1" disallow="tram rail_urban rail rail_electric rail_fast ship" speed="16.67" length="0.32" shape="2013.36,1320.14 2013.61,1320.33"/>
    </edge>