<?xml version="1.0" encoding="UTF-8"?>

<!-- generated on 12/08/2022 19:43:40 by Eclipse SUMO netedit Version 1.9.0
<configuration xmlns:xsi="http://www.w3.org/2001/XMLSchema-instance" xsi:noNamespaceSchemaLocation="http://sumo.dlr.de/xsd/netconvertConfiguration.xsd">

    <input>
        <sumo-net-file value="C:\Users\xyzab\Downloads\main.net%20(1).xml"/>
    </input>

    <output>
        <output-file value="C:\Users\xyzab\Downloads\main.net%20(1).xml"/>
    </output>

    <processing>
        <geometry.min-radius.fix.railways value="false"/>
        <geometry.max-grade.fix value="false"/>
        <offset.disable-normalization value="true"/>
        <lefthand value="false"/>
    </processing>

    <junctions>
        <no-turnarounds value="true"/>
        <junctions.corner-detail value="5"/>
        <junctions.limit-turn-speed value="5.5"/>
        <rectangular-lane-cut value="false"/>
    </junctions>

    <pedestrian>
        <walkingareas value="false"/>
    </pedestrian>

    <netedit>
        <route-files value="C:\Users\xyzab\Desktop\day1amonwards.rou.xml"/>
    </netedit>

    <report>
        <aggregate-warnings value="5"/>
    </report>

</configuration>
-->

<routes xmlns:xsi="http://www.w3.org/2001/XMLSchema-instance" xsi:noNamespaceSchemaLocation="http://sumo.dlr.de/xsd/routes_file.xsd">
    <vType id="Truck" vClass="truck" color="blue"/>
    <vType id="vType_0"/>
    
      <!-- DAY 1 AM -->
    <flow id="flow_0" type="DEFAULT_BIKETYPE" begin="0.00" color="red" from="I1A1" to="-I1B1" via="I1A2 I1A3 I1A4 I1A5 I1A6 -I1B4 -I1B3 -I1B2" end="7199.02" number="1221"/>
    <flow id="flow_1" begin="0.00" from="I1A1" to="-I1B1" via="I1A2 I1A3 I1A4 I1A5 I1A6 -I1B4 -I1B3 -I1B2" end="7199.92" number="161"/>
    <flow id="flow_10" begin="0.00" from="I1B1" to="-I1C1" via="I1B2 I1B3 I1B4 -I1C12 -I1C11 -I1C10 -I1C9 -I1C8 -I1C7 -I1C6 -I1C5 -I1C4 -I1C3 -I1C2" end="7199.92" number="215"/>
    <flow id="flow_11" type="Truck" begin="0.00" color="blue" from="I1B1" to="-I1C1" via="I1B2 I1B3 I1B4 -I1C12 -I1C11 -I1C10 -I1C9 -I1C8 -I1C7 -I1C6 -I1C5 -I1C4 -I1C3 -I1C2" end="7199.96" number="57"/>
    <flow id="flow_12" type="DEFAULT_BIKETYPE" begin="0.00" color="red" from="I1C5" to="-I1B1" via="I1C6 I1CB1 I1CB2 I1CB3 I1CB4 I1CB5 I1CB6 I1CB7 -I1B2" end="7198.36" number="1012"/>
    <flow id="flow_13" begin="0.00" from="I1C5" to="-I1B1" via="I1C6 I1CB1 I1CB2 I1CB3 I1CB4 I1CB5 I1CB6 I1CB7 -I1B2" end="7199.56" number="369"/>
    <flow id="flow_14" type="Truck" begin="0.00" color="blue" from="I1C5" to="-I1B1" via="I1C6 I1CB1 I1CB2 I1CB3 I1CB4 I1CB5 I1CB6 I1CB7 -I1B2" end="7199.95" number="50"/>
    <flow id="flow_15" type="DEFAULT_BIKETYPE" begin="0.00" color="red" from="I1C5" to="-I1A1" via="I1C6 I1C7 I1C8 I1C9 I1C10 I1C11 I1C12 -I1A5 -I1A4 -I1A3 -I1A2" end="7197.26" number="1367"/>
    <flow id="flow_16" begin="0.00" from="I1C5" to="-I1A1" via="I1C6 I1C7 I1C8 I1C9 I1C10 I1C11 I1C12 -I1A5 -I1A4 -I1A3 -I1A2" end="7199.32" number="301"/>
    <flow id="flow_17" type="Truck" begin="0.00" color="blue" from="I1C5" to="-I1A1" via="I1C6 I1C7 I1C8 I1C9 I1C10 I1C11 I1C12 -I1A5 -I1A4 -I1A3 -I1A2" end="7199.70" number="146"/>
    <flow id="flow_18" type="DEFAULT_BIKETYPE" begin="0.00" color="red" from="I2A1" to="-I2A1" via="I2A2 I2A3 I2A4 I2A5 -I2A6 -I2A5 -I2A4 -I2A3 -I2A2" end="7199.02" number="10"/>
    <flow id="flow_19" begin="0.00" from="I2A1" to="-I2A1" via="I2A2 I2A3 I2A4 I2A5 -I2A6 -I2A5 -I2A4 -I2A3 -I2A2" end="7199.92" number="5"/>
    <flow id="flow_2" type="Truck" begin="0.00" color="blue" from="I1A1" to="-I1B1" via="I1A2 I1A3 I1A4 I1A5 I1A6 -I1B4 -I1B3 -I1B2" end="7199.92" number="52"/>
    <flow id="flow_20" type="Truck" begin="0.00" color="blue" from="I2A1" to="-I2A1" via="I2A2 I2A3 I2A4 I2A5 -I2A6 -I2A5 -I2A4 -I2A3 -I2A2" end="0.00" number="0"/>
    <flow id="flow_21" type="DEFAULT_BIKETYPE" begin="0.00" color="red" from="I2A1" to="-I2B1" via="I2A2 I2A3 I2A4 I2A5 -I2B4 -I2B3 -I2B2" end="7198.91" number="286"/>
    <flow id="flow_22" begin="0.00" from="I2A1" to="-I2B1" via="I2A2 I2A3 I2A4 I2A5 -I2B4 -I2B3 -I2B2" end="7199.85" number="75"/>
    <flow id="flow_23" type="Truck" begin="0.00" color="blue" from="I2A1" to="-I2B1" via="I2A2 I2A3 I2A4 I2A5 -I2B4 -I2B3 -I2B2" end="7199.91" number="31"/>
    <flow id="flow_24" type="DEFAULT_BIKETYPE" begin="0.00" color="red" from="I2A1" to="-I2C1" via="I2A2 I2A3 I2A4 I2AC1" end="7198.92" number="331"/>
    <flow id="flow_25" begin="0.00" from="I2A1" to="-I2C1" via="I2A2 I2A3 I2A4 I2AC1" end="7199.90" number="71"/>
    <flow id="flow_26" type="Truck" begin="0.00" color="blue" from="I2A1" to="-I2C1" via="I2A2 I2A3 I2A4 I2AC1" end="7199.91" number="21"/>
    <flow id="flow_27" type="DEFAULT_BIKETYPE" begin="0.00" color="red" from="I2B1" to="-I2A1" via="I2BA1 I2BA2 -I2A5 -I2A4 -I2A3 -I2A2" end="7198.89" number="169"/>
    <flow id="flow_28" begin="0.00" from="I2B1" to="-I2A1" via="I2BA1 I2BA2 -I2A5 -I2A4 -I2A3 -I2A2" end="7199.89" number="41"/>
    <flow id="flow_29" type="Truck" begin="0.00" color="blue" from="I2B1" to="-I2A1" via="I2BA1 I2BA2 -I2A5 -I2A4 -I2A3 -I2A2" end="7199.92" number="6"/>
    <flow id="flow_3" type="DEFAULT_BIKETYPE" begin="0.00" color="red" from="I1A1" to="-I1C1" via="I1A2 I1A3 I1A4 I1A5 I1A6 -I1C12 -I1C11 -I1C10 -I1C9 -I1C8 -I1C7 -I1C6 -I1C5 -I1C4 -I1C3 -I1C2" end="7195.32" number="2257"/>
    <flow id="flow_30" type="DEFAULT_BIKETYPE" begin="0.00" color="red" from="I2B1" to="-I2C1" via="I2B2 I2B3 -I2C2" end="7198.83" number="487"/>
    <flow id="flow_31" begin="0.00" from="I2B1" to="-I2C1" via="I2B2 I2B3 -I2C2" end="7199.81" number="124"/>
    <flow id="flow_32" type="Truck" begin="0.00" color="blue" from="I2B1" to="-I2C1" via="I2B2 I2B3 -I2C2" end="7199.90" number="32"/>
    <flow id="flow_33" type="DEFAULT_BIKETYPE" begin="0.00" color="red" from="I2B1" to="-I2D1" via="I2B2 I2B3 -I2D5 -I2D4 -I2D3 -I2D2" end="7198.83" number="389"/>
    <flow id="flow_34" begin="0.00" from="I2B1" to="-I2D1" via="I2B2 I2B3 -I2D5 -I2D4 -I2D3 -I2D2" end="7199.92" number="115"/>
    <flow id="flow_35" type="Truck" begin="0.00" color="blue" from="I2B1" to="-I2D1" via="I2B2 I2B3 -I2D5 -I2D4 -I2D3 -I2D2" end="7199.92" number="26"/>
    <flow id="flow_36" type="DEFAULT_BIKETYPE" begin="0.00" color="red" from="I2C1" to="-I2A1" via="I2C2 -I2A6 -I2A5 -I2A4 -I2A3 -I2A2" end="7198.97" number="168"/>
    <flow id="flow_37" begin="0.00" from="I2C1" to="-I2A1" via="I2C2 -I2A6 -I2A5 -I2A4 -I2A3 -I2A2" end="7199.92" number="20"/>
    <flow id="flow_38" type="Truck" begin="0.00" color="blue" from="I2C1" to="-I2A1" via="I2C2 -I2A6 -I2A5 -I2A4 -I2A3 -I2A2" end="0.00" number="0"/>
    <flow id="flow_39" type="DEFAULT_BIKETYPE" begin="0.00" color="red" from="I2C1" to="-I2B1" via="I2C2 -I2B4 -I2B3 -I2B2" end="7198.99" number="674"/>
    <flow id="flow_4" begin="0.00" from="I1A1" to="-I1B1" via="I1A2 I1A3 I1A4 I1A5 I1A6 -I1C12 -I1C11 -I1C10 -I1C9 -I1C8 -I1C7 -I1C6 -I1C5 -I1C4 -I1C3 -I1C2" end="7199.86" number="431"/>
    <flow id="flow_40" begin="0.00" from="I2C1" to="-I2B1" via="I2C2 -I2B4 -I2B3 -I2B2" end="7199.81" number="154"/>
    <flow id="flow_41" type="Truck" begin="0.00" color="blue" from="I2C1" to="-I2B1" via="I2C2 -I2B4 -I2B3 -I2B2" end="7199.90" number="37"/>
    <flow id="flow_42" type="DEFAULT_BIKETYPE" begin="0.00" color="red" from="I2C1" to="-I2D1" via="I2CD1 -I2D4 -I2D3 -I2D2" end="7198.94" number="186"/>
    <flow id="flow_43" begin="0.00" from="I2C1" to="-I2D1" via="I2CD1 -I2D4 -I2D3 -I2D2" end="7199.90" number="48"/>
    <flow id="flow_44" type="Truck" begin="0.00" color="blue" from="I2C1" to="-I2D1" via="I2CD1 -I2D4 -I2D3 -I2D2" end="7199.92" number="2"/>
    <flow id="flow_45" type="DEFAULT_BIKETYPE" begin="0.00" color="red" from="I2D1" to="-I2B1" via="I2DB1 I2DB2 -I2B3 -I2B2" end="7198.68" number="554"/>
    <flow id="flow_46" begin="0.00" from="I2D1" to="-I2B1" via="I2DB1 I2DB2 -I2B3 -I2B2" end="7199.83" number="149"/>
    <flow id="flow_47" type="Truck" begin="0.00" color="blue" from="I2D1" to="-I2B1" via="I2DB1 I2DB2 -I2B3 -I2B2" end="0.00" number="0"/>
    <flow id="flow_48" type="DEFAULT_BIKETYPE" begin="0.00" color="red" from="I2D1" to="-I2C1" via="I2D2 -I2C2" end="7198.86" number="347"/>
    <flow id="flow_49" begin="0.00" from="I2D1" to="-I2C1" via="I2D2 -I2C2" end="7199.91" number="155"/>
    <flow id="flow_5" type="Truck" begin="0.00" color="blue" from="I1A1" to="-I1C1" via="I1A2 I1A3 I1A4 I1A5 I1A6 -I1C12 -I1C11 -I1C10 -I1C9 -I1C8 -I1C7 -I1C6 -I1C5 -I1C4 -I1C3 -I1C2" end="7199.86" number="144"/>
    <flow id="flow_50" type="Truck" begin="0.00" color="blue" from="I2D1" to="-I2C1" via="I2D2 -I2C2" end="0.00" number="0"/>
    <flow id="flow_51" type="DEFAULT_BIKETYPE" begin="0.00" color="red" from="I3A1" to="-I3B1" via="-I3B2" end="7199.01" number="182"/>
    <flow id="flow_52" begin="0.00" from="I3A1" to="-I3B1" via="-I3B2" end="7199.81" number="123"/>
    <flow id="flow_53" type="Truck" begin="0.00" color="blue" from="I3A1" to="-I3B1" via="-I3B2" end="7199.92" number="19"/>
    <flow id="flow_54" type="DEFAULT_BIKETYPE" begin="0.00" color="red" from="-I2D1" to="-I3C2" via="I3AC1" end="7198.79" number="495"/>
    <flow id="flow_55" begin="0.00" from="-I2D1" to="-I3C2" via="I3AC1" end="7199.77" number="189"/>
    <flow id="flow_56" type="Truck" begin="0.00" color="blue" from="-I2D1" to="-I3C2" via="I3AC1" end="0.00" number="0"/>
    <flow id="flow_57" type="DEFAULT_BIKETYPE" begin="0.00" color="red" from="I3A1" to="-I3D2" end="7197.96" number="1064"/>
    <flow id="flow_58" begin="0.00" from="I3A1" to="-I3D2" end="7199.64" number="563"/>
    <flow id="flow_59" type="Truck" begin="0.00" color="blue" from="I3A1" to="-I3D2" end="7199.85" number="175"/>
    <flow id="flow_6" type="DEFAULT_BIKETYPE" begin="0.00" color="red" from="I1B1" to="-I1A1" via="I1BA1 I1BA2 I1BA3 I1BA4" end="7197.85" number="618"/>
    <flow id="flow_60" type="DEFAULT_BIKETYPE" begin="0.00" color="red" from="I3C1" to="-I3A1" end="7198.82" number="340"/>
    <flow id="flow_61" begin="0.00" from="I3C1" to="-I3A1" end="7199.77" number="174"/>
    <flow id="flow_62" type="Truck" begin="0.00" color="blue" from="I3C1" to="-I3A1" end="7199.92" number="10"/>
    <flow id="flow_63" type="DEFAULT_BIKETYPE" begin="0.00" color="red" from="I3C2" to="-I3B1" via="-I3B2" end="7199.00" number="339"/>
    <flow id="flow_64" begin="0.00" from="I3C2" to="-I3B1" via="-I3B2" end="7199.68" number="302"/>
    <flow id="flow_65" type="Truck" begin="0.00" color="blue" from="I3C2" to="-I3B1" via="-I3B2" end="7199.92" number="1"/>
    <flow id="flow_66" type="DEFAULT_BIKETYPE" begin="0.00" color="red" from="I3C2" to="-I3D2" via="I3CD1" end="7198.90" number="141"/>
    <flow id="flow_67" begin="0.00" from="I3C2" to="-I3D2" via="I3CD1" end="7199.91" number="39"/>
    <flow id="flow_68" type="Truck" begin="0.00" color="blue" from="I3C2" to="-I3D2" via="I3CD1" end="0.00" number="0"/>
    <flow id="flow_69" type="DEFAULT_BIKETYPE" begin="0.00" color="red" from="I3D2" to="-I3A1" end="7198.99" number="971"/>
    <flow id="flow_7" begin="0.00" from="I1B1" to="-I1A1" via="I1BA1 I1BA2 I1BA3 I1BA4" end="7199.72" number="220"/>
    <flow id="flow_70" begin="0.00" from="I3D2" to="-I3A1" end="7199.59" number="711"/>
    <flow id="flow_71" type="Truck" begin="0.00" color="blue" from="I3D2" to="-I3A1" end="7199.86" number="76"/>
    <flow id="flow_72" type="DEFAULT_BIKETYPE" begin="0.00" color="red" from="I3D2" to="-I3B1" via="I3DB1" end="7198.96" number="68"/>
    <flow id="flow_73" begin="0.00" from="I3D2" to="-I3B1" via="I3DB1" end="7199.91" number="30"/>
    <flow id="flow_74" type="Truck" begin="0.00" color="blue" from="I3D2" to="-I3B1" via="I3DB1" end="7199.92" number="2"/>
    <flow id="flow_75" type="DEFAULT_BIKETYPE" begin="0.00" color="red" from="I3D2" to="-I3C2" via="I3D1 -I3C1" end="7199.00" number="413"/>
    <flow id="flow_76" begin="0.00" from="I3D2" to="-I3C2" via="I3D1 -I3C1" end="7199.86" number="119"/>
    <flow id="flow_77" type="Truck" begin="0.00" color="blue" from="I3D2" to="-I3C2" via="I3D1 -I3C1" end="0.00" number="0"/>
    <flow id="flow_8" type="Truck" begin="0.00" color="blue" from="I1B1" to="-I1A1" via="I1BA1 I1BA2 I1BA3 I1BA4" end="7199.94" number="66"/>
    <flow id="flow_9" type="DEFAULT_BIKETYPE" begin="0.00" color="red" from="I1B1" to="-I1C1" via="I1B2 I1B3 I1B4 -I1C12 -I1C11 -I1C10 -I1C9 -I1C8 -I1C7 -I1C6 -I1C5 -I1C4 -I1C3 -I1C2" end="7198.88" number="692"/>

    <!-- DAY 1 PM -->
<flow id="flow_78" type="DEFAULT_BIKETYPE" begin="7200" color="red" from="I1A1" to="-I1B1" via="I1A2 I1A3 I1A4 I1A5 I1A6 -I1B4 -I1B3 -I1B2" end="14400" number="1526"/>
<flow id="flow_79" begin="7200" from="I1A1" to="-I1B1" via="I1A2 I1A3 I1A4 I1A5 I1A6 -I1B4 -I1B3 -I1B2" end="14400" number="257"/>
<flow id="flow_80" type="Truck" begin="7200" color="blue" from="I1A1" to="-I1B1" via="I1A2 I1A3 I1A4 I1A5 I1A6 -I1B4 -I1B3 -I1B2" end="14400" number="233"/>
<flow id="flow_81" type="DEFAULT_BIKETYPE" begin="7200" color="red" from="I1A1" to="-I1C1" via="I1A2 I1A3 I1A4 I1A5 I1A6 -I1C12 -I1C11 -I1C10 -I1C9 -I1C8 -I1C7 -I1C6 -I1C5 -I1C4 -I1C3 -I1C2" end="14400" number="2593"/>
<flow id="flow_82" begin="7200" from="I1A1" to="-I1B1" via="I1A2 I1A3 I1A4 I1A5 I1A6 -I1C12 -I1C11 -I1C10 -I1C9 -I1C8 -I1C7 -I1C6 -I1C5 -I1C4 -I1C3 -I1C2" end="14400" number="502"/>
<flow id="flow_83" type="Truck" begin="7200" color="blue" from="I1A1" to="-I1C1" via="I1A2 I1A3 I1A4 I1A5 I1A6 -I1C12 -I1C11 -I1C10 -I1C9 -I1C8 -I1C7 -I1C6 -I1C5 -I1C4 -I1C3 -I1C2" end="14400" number="63"/>
<flow id="flow_84" type="DEFAULT_BIKETYPE" begin="7200" color="red" from="I1B1" to="-I1A1" via="I1BA1 I1BA2 I1BA3 I1BA4" end="14400" number="963"/>
<flow id="flow_85" begin="7200" from="I1B1" to="-I1A1" via="I1BA1 I1BA2 I1BA3 I1BA4" end="14400" number="331"/>
<flow id="flow_86" type="Truck" begin="7200" color="blue" from="I1B1" to="-I1A1" via="I1BA1 I1BA2 I1BA3 I1BA4" end="14400" number="99"/>
<flow id="flow_87" type="DEFAULT_BIKETYPE" begin="7200" color="red" from="I1B1" to="-I1C1" via="I1B2 I1B3 I1B4 -I1C12 -I1C11 -I1C10 -I1C9 -I1C8 -I1C7 -I1C6 -I1C5 -I1C4 -I1C3 -I1C2" end="14400" number="411"/>
<flow id="flow_88" begin="7200" from="I1B1" to="-I1C1" via="I1B2 I1B3 I1B4 -I1C12 -I1C11 -I1C10 -I1C9 -I1C8 -I1C7 -I1C6 -I1C5 -I1C4 -I1C3 -I1C2" end="14400" number="212"/>
<flow id="flow_89" type="Truck" begin="7200" color="blue" from="I1B1" to="-I1C1" via="I1B2 I1B3 I1B4 -I1C12 -I1C11 -I1C10 -I1C9 -I1C8 -I1C7 -I1C6 -I1C5 -I1C4 -I1C3 -I1C2" end="14400" number="94"/>
<flow id="flow_90" type="DEFAULT_BIKETYPE" begin="7200" color="red" from="I1C5" to="-I1B1" via="I1C6 I1CB1 I1CB2 I1CB3 I1CB4 I1CB5 I1CB6 I1CB7 -I1B2" end="14400" number="984"/>
<flow id="flow_91" begin="7200" from="I1C5" to="-I1B1" via="I1C6 I1CB1 I1CB2 I1CB3 I1CB4 I1CB5 I1CB6 I1CB7 -I1B2" end="14400" number="377"/>
<flow id="flow_92" type="Truck" begin="7200" color="blue" from="I1C5" to="-I1B1" via="I1C6 I1CB1 I1CB2 I1CB3 I1CB4 I1CB5 I1CB6 I1CB7 -I1B2" end="14400" number="20"/>
<flow id="flow_93" type="DEFAULT_BIKETYPE" begin="7200" color="red" from="I1C5" to="-I1A1" via="I1C6 I1C7 I1C8 I1C9 I1C10 I1C11 I1C12 -I1A5 -I1A4 -I1A3 -I1A2" end="14400" number="2829"/>
<flow id="flow_94" begin="7200" from="I1C5" to="-I1A1" via="I1C6 I1C7 I1C8 I1C9 I1C10 I1C11 I1C12 -I1A5 -I1A4 -I1A3 -I1A2" end="14400" number="528"/>
<flow id="flow_95" type="Truck" begin="7200" color="blue" from="I1C5" to="-I1A1" via="I1C6 I1C7 I1C8 I1C9 I1C10 I1C11 I1C12 -I1A5 -I1A4 -I1A3 -I1A2" end="14400" number="42"/>
<flow id="flow_96" type="DEFAULT_BIKETYPE" begin="7200" color="red" from="I2A1" to="-I2A1" via="I2A2 I2A3 I2A4 I2A5 -I2A6 -I2A5 -I2A4 -I2A3 -I2A2" end="14400" number="5"/>

<flow id="flow_99" type="DEFAULT_BIKETYPE" begin="7200" color="red" from="I2A1" to="-I2B1" via="I2A2 I2A3 I2A4 I2A5 -I2B4 -I2B3 -I2B2" end="14400" number="550"/>
<flow id="flow_100" begin="7200" from="I2A1" to="-I2B1" via="I2A2 I2A3 I2A4 I2A5 -I2B4 -I2B3 -I2B2" end="14400" number="118"/>
<flow id="flow_101" type="Truck" begin="7200" color="blue" from="I2A1" to="-I2B1" via="I2A2 I2A3 I2A4 I2A5 -I2B4 -I2B3 -I2B2" end="14400" number="39"/>
<flow id="flow_102" type="DEFAULT_BIKETYPE" begin="7200" color="red" from="I2A1" to="-I2C1" via="I2A2 I2A3 I2A4 I2AC1" end="14400" number="371"/>
<flow id="flow_103" begin="7200" from="I2A1" to="-I2C1" via="I2A2 I2A3 I2A4 I2AC1" end="14400" number="76"/>
<flow id="flow_104" type="Truck" begin="7200" color="blue" from="I2A1" to="-I2C1" via="I2A2 I2A3 I2A4 I2AC1" end="14400" number="32"/>
<flow id="flow_105" type="DEFAULT_BIKETYPE" begin="7200" color="red" from="I2B1" to="-I2A1" via="I2BA1 I2BA2 -I2A5 -I2A4 -I2A3 -I2A2" end="14400" number="193"/>
<flow id="flow_106" begin="7200" from="I2B1" to="-I2A1" via="I2BA1 I2BA2 -I2A5 -I2A4 -I2A3 -I2A2" end="14400" number="38"/>
<flow id="flow_107" type="Truck" begin="7200" color="blue" from="I2B1" to="-I2A1" via="I2BA1 I2BA2 -I2A5 -I2A4 -I2A3 -I2A2" end="14400" number="12"/>
<flow id="flow_108" type="DEFAULT_BIKETYPE" begin="7200" color="red" from="I2B1" to="-I2C1" via="I2B2 I2B3 -I2C2" end="14400" number="456"/>
<flow id="flow_109" begin="7200" from="I2B1" to="-I2C1" via="I2B2 I2B3 -I2C2" end="14400" number="124"/>
<flow id="flow_110" type="Truck" begin="7200" color="blue" from="I2B1" to="-I2C1" via="I2B2 I2B3 -I2C2" end="14400" number="31"/>
<flow id="flow_111" type="DEFAULT_BIKETYPE" begin="7200" color="red" from="I2B1" to="-I2D1" via="I2B2 I2B3 -I2D5 -I2D4 -I2D3 -I2D2" end="14400" number="667"/>
<flow id="flow_112" begin="7200" from="I2B1" to="-I2D1" via="I2B2 I2B3 -I2D5 -I2D4 -I2D3 -I2D2" end="14400" number="171"/>
<flow id="flow_113" type="Truck" begin="7200" color="blue" from="I2B1" to="-I2D1" via="I2B2 I2B3 -I2D5 -I2D4 -I2D3 -I2D2" end="14400" number="44"/>
<flow id="flow_114" type="DEFAULT_BIKETYPE" begin="7200" color="red" from="I2C1" to="-I2A1" via="I2C2 -I2A6 -I2A5 -I2A4 -I2A3 -I2A2" end="14400" number="681"/>
<flow id="flow_116" begin="7200" from="I2C1" to="-I2A1" via="I2C2 -I2A6 -I2A5 -I2A4 -I2A3 -I2A2" end="14400" number="144"/>
<flow id="flow_117" type="Truck" begin="7200" color="blue" from="I2C1" to="-I2A1" via="I2C2 -I2A6 -I2A5 -I2A4 -I2A3 -I2A2" end="14400" number="33"/>
<flow id="flow_118" type="DEFAULT_BIKETYPE" begin="7200" color="red" from="I2C1" to="-I2B1" via="I2C2 -I2B4 -I2B3 -I2B2" end="14400" number="873"/>
<flow id="flow_119" begin="7200" from="I2C1" to="-I2B1" via="I2C2 -I2B4 -I2B3 -I2B2" end="14400" number="199"/>
<flow id="flow_120" type="Truck" begin="7200" color="blue" from="I2C1" to="-I2B1" via="I2C2 -I2B4 -I2B3 -I2B2" end="14400" number="35"/>
<flow id="flow_121" type="DEFAULT_BIKETYPE" begin="7200" color="red" from="I2C1" to="-I2D1" via="I2CD1 -I2D4 -I2D3 -I2D2" end="14400" number="496"/>
<flow id="flow_122" begin="7200" from="I2C1" to="-I2D1" via="I2CD1 -I2D4 -I2D3 -I2D2" end="14400" number="119"/>
<flow id="flow_124" type="DEFAULT_BIKETYPE" begin="7200" color="red" from="I2D1" to="-I2B1" via="I2DB1 I2DB2 -I2B3 -I2B2" end="14400" number="200"/>
<flow id="flow_125" begin="7200" from="I2D1" to="-I2B1" via="I2DB1 I2DB2 -I2B3 -I2B2" end="14400" number="151"/>
<flow id="flow_127" type="DEFAULT_BIKETYPE" begin="7200" color="red" from="I2D1" to="-I2C1" via="I2D2 -I2C2" end="14400" number="314"/>
<flow id="flow_128" begin="7200" from="I2D1" to="-I2C1" via="I2D2 -I2C2" end="14400" number="186"/>
<flow id="flow_129" type="Truck" begin="7200" color="blue" from="I2D1" to="-I2C1" via="I2D2 -I2C2" end="14400" number="204"/>
<flow id="flow_130" type="DEFAULT_BIKETYPE" begin="7200" color="red" from="I3A1" to="-I3B1" via="-I3B2" end="14400" number="212"/>
<flow id="flow_131" begin="7200" from="I3A1" to="-I3B1" via="-I3B2" end="14400" number="101"/>
<flow id="flow_132" type="Truck" begin="7200" color="blue" from="I3A1" to="-I3B1" via="-I3B2" end="14400" number="5"/>
<flow id="flow_133" type="DEFAULT_BIKETYPE" begin="7200" color="red" from="-I2D1" to="-I3C2" via="I3AC1" end="14400" number="955"/>
<flow id="flow_134" begin="7200" from="-I2D1" to="-I3C2" via="I3AC1" end="14400" number="402"/>
<flow id="flow_135" type="Truck" begin="7200" color="blue" from="-I2D1" to="-I3C2" via="I3AC1" end="14400" number="3"/>
<flow id="flow_136" type="DEFAULT_BIKETYPE" begin="7200" color="red" from="I3A1" to="-I3D2"  end="14400" number="983"/>
<flow id="flow_137" begin="7200" from="I3A1" to="-I3D2"  end="14400" number="557"/>
<flow id="flow_138" type="Truck" begin="7200" color="blue" from="I3A1" to="-I3D2"  end="14400" number="156"/>
<flow id="flow_139" type="DEFAULT_BIKETYPE" begin="7200" color="red" from="I3C1" to="-I3A1" end="14400" number="632"/>
<flow id="flow_140" begin="7200" from="I3C1" to="-I3A1" end="14400" number="467"/>
<flow id="flow_141" type="Truck" begin="7200" color="blue" from="I3C1" to="-I3A1"  end="14400" number="12"/>
<flow id="flow_142" type="DEFAULT_BIKETYPE" begin="7200" color="red" from="I3C2" to="-I3B1" via="-I3B2" end="14400" number="429"/>
<flow id="flow_143" begin="7200" from="I3C2" to="-I3B1" via="-I3B2" end="14400" number="264"/>
<flow id="flow_146" type="DEFAULT_BIKETYPE" begin="7200" color="red" from="I3C2" to="-I3D2" via="I3CD1"  end="14400" number="63"/>
<flow id="flow_147" begin="7200" from="I3C2" to="-I3D2" via="I3CD1"  end="14400" number="67"/>
<flow id="flow_149" type="DEFAULT_BIKETYPE" begin="7200" color="red" from="I3D2" to="-I3A1"  end="14400" number="1770"/>
<flow id="flow_150" begin="7200" from="I3D2" to="-I3A1"  end="14400" number="543"/>
<flow id="flow_151" type="Truck" begin="7200" color="blue" from="I3D2" to="-I3A1"  end="14400" number="233"/>
<flow id="flow_152" type="DEFAULT_BIKETYPE" begin="7200" color="red" from="I3D2" to="-I3B1" via="I3DB1" end="14400" number="137"/>
<flow id="flow_153" begin="7200" from="I3D2" to="-I3B1" via="I3DB1" end="14400" number="67"/>
<flow id="flow_154" type="Truck" begin="7200" color="blue" from="I3D2" to="-I3B1" via="I3DB1" end="14400" number="9"/>
<flow id="flow_155" type="DEFAULT_BIKETYPE" begin="7200" color="red" from="I3D2" to="-I3C2" via="I3D1 -I3C1" end="14400" number="528"/>
<flow id="flow_156" begin="7200" from="I3D2" to="-I3C2" via="I3D1 -I3C1" end="14400" number="358"/>
<flow id="flow_157" type="Truck" begin="7200" color="blue" from="I3D2" to="-I3C2" via="I3D1 -I3C1" end="14400" number="41"/>


<!-- DAY 2 AM -->
<flow id="flow_158" type="DEFAULT_BIKETYPE" begin="14400" color="red" from="I1A1" to="-I1B1" via="I1A2 I1A3 I1A4 I1A5 I1A6 -I1B4 -I1B3 -I1B2" end="21598.18" number="1211"/>
<flow id="flow_159" begin="14400" from="I1A1" to="-I1B1" via="I1A2 I1A3 I1A4 I1A5 I1A6 -I1B4 -I1B3 -I1B2" end="21599.92" number="161"/>
<flow id="flow_160" type="Truck" begin="14400" color="blue" from="I1A1" to="-I1B1" via="I1A2 I1A3 I1A4 I1A5 I1A6 -I1B4 -I1B3 -I1B2" end="21599.92" number="52"/>
<flow id="flow_161" type="DEFAULT_BIKETYPE" begin="14400" color="red" from="I1A1" to="-I1C1" via="I1A2 I1A3 I1A4 I1A5 I1A6 -I1C12 -I1C11 -I1C10 -I1C9 -I1C8 -I1C7 -I1C6 -I1C5 -I1C4 -I1C3 -I1C2" end="21595.32" number="2257"/>
<flow id="flow_162" begin="14400" from="I1A1" to="-I1B1" via="I1A2 I1A3 I1A4 I1A5 I1A6 -I1C12 -I1C11 -I1C10 -I1C9 -I1C8 -I1C7 -I1C6 -I1C5 -I1C4 -I1C3 -I1C2" end="21599.86" number="431"/>
<flow id="flow_163" type="Truck" begin="14400" color="blue" from="I1A1" to="-I1C1" via="I1A2 I1A3 I1A4 I1A5 I1A6 -I1C12 -I1C11 -I1C10 -I1C9 -I1C8 -I1C7 -I1C6 -I1C5 -I1C4 -I1C3 -I1C2" end="21599.86" number="144"/>
<flow id="flow_164" type="DEFAULT_BIKETYPE" begin="14400" color="red" from="I1B1" to="-I1A1" via="I1BA1 I1BA2 I1BA3 I1BA4" end="21597.85" number="618"/>
<flow id="flow_165" begin="14400" from="I1B1" to="-I1A1" via="I1BA1 I1BA2 I1BA3 I1BA4" end="21599.72" number="220"/>
<flow id="flow_166" type="Truck" begin="14400" color="blue" from="I1B1" to="-I1A1" via="I1BA1 I1BA2 I1BA3 I1BA4" end="21599.94" number="66"/>
<flow id="flow_167" type="DEFAULT_BIKETYPE" begin="14400" color="red" from="I1B1" to="-I1C1" via="I1B2 I1B3 I1B4 -I1C12 -I1C11 -I1C10 -I1C9 -I1C8 -I1C7 -I1C6 -I1C5 -I1C4 -I1C3 -I1C2" end="21598.88" number="692"/>

    <flow id="flow_168" begin="14400" from="I1B1" to="-I1C1" via="I1B2 I1B3 I1B4 -I1C12 -I1C11 -I1C10 -I1C9 -I1C8 -I1C7 -I1C6 -I1C5 -I1C4 -I1C3 -I1C2" end="21599.92" number="215"/>
    <flow id="flow_169" type="Truck" begin="14400" color="blue" from="I1B1" to="-I1C1" via="I1B2 I1B3 I1B4 -I1C12 -I1C11 -I1C10 -I1C9 -I1C8 -I1C7 -I1C6 -I1C5 -I1C4 -I1C3 -I1C2" end="21599.96" number="57"/>
    <flow id="flow_170" type="DEFAULT_BIKETYPE" begin="14400" color="red" from="I1C5" to="-I1B1" via="I1C6 I1CB1 I1CB2 I1CB3 I1CB4 I1CB5 I1CB6 I1CB7 -I1B2" end="21598.36" number="1012"/>
    <flow id="flow_171" begin="14400" from="I1C5" to="-I1B1" via="I1C6 I1CB1 I1CB2 I1CB3 I1CB4 I1CB5 I1CB6 I1CB7 -I1B2" end="21599.56" number="369"/>
    <flow id="flow_172" type="Truck" begin="14400" color="blue" from="I1C5" to="-I1B1" via="I1C6 I1CB1 I1CB2 I1CB3 I1CB4 I1CB5 I1CB6 I1CB7 -I1B2" end="21599.95" number="50"/>
    <flow id="flow_173" type="DEFAULT_BIKETYPE" begin="14400" color="red" from="I1C5" to="-I1A1" via="I1C6 I1C7 I1C8 I1C9 I1C10 I1C11 I1C12 -I1A5 -I1A4 -I1A3 -I1A2" end="21597.26" number="1367"/>
    <flow id="flow_174" begin="14400" from="I1C5" to="-I1A1" via="I1C6 I1C7 I1C8 I1C9 I1C10 I1C11 I1C12 -I1A5 -I1A4 -I1A3 -I1A2" end="21599.32" number="301"/>
    <flow id="flow_175" type="Truck" begin="14400" color="blue" from="I1C5" to="-I1A1" via="I1C6 I1C7 I1C8 I1C9 I1C10 I1C11 I1C12 -I1A5 -I1A4 -I1A3 -I1A2" end="21599.70" number="146"/>
    <flow id="flow_176" type="DEFAULT_BIKETYPE" begin="14400" color="red" from="I2A1" to="-I2A1" via="I2A2 I2A3 I2A4 I2A5 -I2A6 -I2A5 -I2A4 -I2A3 -I2A2" end="21599.02" number="10"/>
    <flow id="flow_177" begin="14400" from="I2A1" to="-I2A1" via="I2A2 I2A3 I2A4 I2A5 -I2A6 -I2A5 -I2A4 -I2A3 -I2A2" end="21599.92" number="5"/>
    
    <flow id="flow_179" type="DEFAULT_BIKETYPE" begin="14400" color="red" from="I2A1" to="-I2B1" via="I2A2 I2A3 I2A4 I2A5 -I2B4 -I2B3 -I2B2" end="21598.91" number="286"/>
    <flow id="flow_180" begin="14400" from="I2A1" to="-I2B1" via="I2A2 I2A3 I2A4 I2A5 -I2B4 -I2B3 -I2B2" end="21599.85" number="75"/>
    <flow id="flow_181" type="Truck" begin="14400" color="blue" from="I2A1" to="-I2B1" via="I2A2 I2A3 I2A4 I2A5 -I2B4 -I2B3 -I2B2" end="21599.91" number="31"/>
    <flow id="flow_182" type="DEFAULT_BIKETYPE" begin="14400" color="red" from="I2A1" to="-I2C1" via="I2A2 I2A3 I2A4 I2AC1" end="21598.92" number="331"/>
    <flow id="flow_183" begin="14400" from="I2A1" to="-I2C1" via="I2A2 I2A3 I2A4 I2AC1" end="21599.90" number="71"/>
    <flow id="flow_184" type="Truck" begin="14400" color="blue" from="I2A1" to="-I2C1" via="I2A2 I2A3 I2A4 I2AC1" end="21599.91" number="21"/>
    <flow id="flow_185" type="DEFAULT_BIKETYPE" begin="14400" color="red" from="I2B1" to="-I2A1" via="I2BA1 I2BA2 -I2A5 -I2A4 -I2A3 -I2A2" end="21598.89" number="169"/>
    <flow id="flow_186" begin="14400" from="I2B1" to="-I2A1" via="I2BA1 I2BA2 -I2A5 -I2A4 -I2A3 -I2A2" end="21599.89" number="41"/>
    <flow id="flow_187" type="Truck" begin="14400" color="blue" from="I2B1" to="-I2A1" via="I2BA1 I2BA2 -I2A5 -I2A4 -I2A3 -I2A2" end="21599.92" number="6"/>

    <flow id="flow_188" type="DEFAULT_BIKETYPE" begin="14400" color="red" from="I2B1" to="-I2C1" via="I2B2 I2B3 -I2C2" end="21598.83" number="487"/>
    <flow id="flow_189" begin="14400" from="I2B1" to="-I2C1" via="I2B2 I2B3 -I2C2" end="21599.81" number="124"/>
    <flow id="flow_190" type="Truck" begin="14400" color="blue" from="I2B1" to="-I2C1" via="I2B2 I2B3 -I2C2" end="21599.90" number="32"/>
    <flow id="flow_191" type="DEFAULT_BIKETYPE" begin="14400" color="red" from="I2B1" to="-I2D1" via="I2B2 I2B3 -I2D5 -I2D4 -I2D3 -I2D2" end="21598.83" number="389"/>
    <flow id="flow_192" begin="14400" from="I2B1" to="-I2D1" via="I2B2 I2B3 -I2D5 -I2D4 -I2D3 -I2D2" end="21599.92" number="115"/>
    <flow id="flow_193" type="Truck" begin="14400" color="blue" from="I2B1" to="-I2D1" via="I2B2 I2B3 -I2D5 -I2D4 -I2D3 -I2D2" end="21599.92" number="26"/>
    <flow id="flow_194" type="DEFAULT_BIKETYPE" begin="14400" color="red" from="I2C1" to="-I2A1" via="I2C2 -I2A6 -I2A5 -I2A4 -I2A3 -I2A2" end="21598.97" number="168"/>
    <flow id="flow_195" begin="14400" from="I2C1" to="-I2A1" via="I2C2 -I2A6 -I2A5 -I2A4 -I2A3 -I2A2" end="21599.92" number="20"/>
    <flow id="flow_197" type="DEFAULT_BIKETYPE" begin="14400" color="red" from="I2C1" to="-I2B1" via="I2C2 -I2B4 -I2B3 -I2B2" end="21598.99" number="674"/>

    <flow id="flow_198" begin="14400" from="I2C1" to="-I2B1" via="I2C2 -I2B4 -I2B3 -I2B2" end="21599.81" number="154"/>
    <flow id="flow_199" type="Truck" begin="14400" color="blue" from="I2C1" to="-I2B1" via="I2C2 -I2B4 -I2B3 -I2B2" end="21599.90" number="37"/>
    <flow id="flow_200" type="DEFAULT_BIKETYPE" begin="14400" color="red" from="I2C1" to="-I2D1" via="I2CD1 -I2D4 -I2D3 -I2D2" end="21598.94" number="186"/>
    <flow id="flow_201" begin="14400" from="I2C1" to="-I2D1" via="I2CD1 -I2D4 -I2D3 -I2D2" end="21599.90" number="48"/>
    <flow id="flow_202" type="Truck" begin="14400" color="blue" from="I2C1" to="-I2D1" via="I2CD1 -I2D4 -I2D3 -I2D2" end="21599.92" number="2"/>
    <flow id="flow_203" type="DEFAULT_BIKETYPE" begin="14400" color="red" from="I2D1" to="-I2B1" via="I2DB1 I2DB2 -I2B3 -I2B2" end="21598.68" number="554"/>
    <flow id="flow_204" begin="14400" from="I2D1" to="-I2B1" via="I2DB1 I2DB2 -I2B3 -I2B2" end="21599.83" number="149"/>
    <flow id="flow_206" type="DEFAULT_BIKETYPE" begin="14400" color="red" from="I2D1" to="-I2C1" via="I2D2 -I2C2" end="21598.86" number="347"/>
    <flow id="flow_207" begin="14400" from="I2D1" to="-I2C1" via="I2D2 -I2C2" end="21599.91" number="155"/>
   
    <flow id="flow_208" type="Truck" begin="14400" color="blue" from="I2D1" to="-I2C1" via="I2D2 -I2C2" end="21599.90" number="50"/>
    <flow id="flow_209" type="DEFAULT_BIKETYPE" begin="14400" color="red" from="I3A1" to="-I3B1" via="-I3B2" end="21599.01" number="182"/>
    <flow id="flow_210" begin="14400" from="I3A1" to="-I3B1" via="-I3B2" end="21599.81" number="123"/>